A5-FPP
  PyMOL3.1          3D                             0

 40 39  0  0  0  0  0  0  0  0999 V2000
   50.9500   10.9960   54.7030 C   0  0  0  0  0  0  0  0  0  0  0  0
   50.1840   10.8030   56.0170 C   0  0  0  0  0  0  0  0  0  0  0  0
   49.6250   13.2210   51.6870 C   0  0  0  0  0  0  0  0  0  0  0  0
   50.2780   12.1130   52.4870 C   0  0  0  0  0  0  0  0  0  0  0  0
   50.2870   12.0260   53.8310 C   0  0  0  0  0  0  0  0  0  0  0  0
   48.6090   12.7300   50.6460 C   0  0  0  0  0  0  0  0  0  0  0  0
   48.7370   10.4280   55.7800 C   0  0  0  0  0  0  0  0  0  0  0  0
   51.0070   11.0750   51.6690 C   0  0  0  0  0  0  0  0  0  0  0  0
   47.3990   12.0910   51.2690 C   0  0  0  0  0  0  0  0  0  0  0  0
   47.6830   11.1790   56.1520 C   0  0  0  0  0  0  0  0  0  0  0  0
   48.5240    9.1270   55.0520 C   0  0  0  0  0  0  0  0  0  0  0  0
   46.9340   10.8390   51.0940 C   0  0  0  0  0  0  0  0  0  0  0  0
   46.2360   10.8800   55.9270 C   0  0  0  0  0  0  0  0  0  0  0  0
   47.6450    9.8840   50.1720 C   0  0  0  0  0  0  0  0  0  0  0  0
   45.7120   10.2630   51.7520 C   0  0  0  0  0  0  0  0  0  0  0  0
   51.0410   10.0330   54.1900 H   0  0  0  0  0  0  0  0  0  0  0  0
   51.9640   11.3370   54.9420 H   0  0  0  0  0  0  0  0  0  0  0  0
   50.2440   11.7230   56.6130 H   0  0  0  0  0  0  0  0  0  0  0  0
   50.6690   10.0210   56.6140 H   0  0  0  0  0  0  0  0  0  0  0  0
   49.1360   13.9340   52.3630 H   0  0  0  0  0  0  0  0  0  0  0  0
   50.4120   13.7840   51.1710 H   0  0  0  0  0  0  0  0  0  0  0  0
   49.7970   12.8380   54.3690 H   0  0  0  0  0  0  0  0  0  0  0  0
   48.2540   13.6050   50.0860 H   0  0  0  0  0  0  0  0  0  0  0  0
   49.1150   12.1070   49.9080 H   0  0  0  0  0  0  0  0  0  0  0  0
   51.4770   11.5410   50.7950 H   0  0  0  0  0  0  0  0  0  0  0  0
   51.8170   10.5860   52.2180 H   0  0  0  0  0  0  0  0  0  0  0  0
   50.3150   10.3050   51.3180 H   0  0  0  0  0  0  0  0  0  0  0  0
   46.8380   12.7400   51.9400 H   0  0  0  0  0  0  0  0  0  0  0  0
   47.8850   12.1140   56.6730 H   0  0  0  0  0  0  0  0  0  0  0  0
   49.3610    8.4430   55.2340 H   0  0  0  0  0  0  0  0  0  0  0  0
   47.6330    8.5890   55.3890 H   0  0  0  0  0  0  0  0  0  0  0  0
   48.4550    9.2960   53.9730 H   0  0  0  0  0  0  0  0  0  0  0  0
   46.0540    9.9580   55.3730 H   0  0  0  0  0  0  0  0  0  0  0  0
   45.7390   10.7930   56.8990 H   0  0  0  0  0  0  0  0  0  0  0  0
   46.9210    9.4260   49.4890 H   0  0  0  0  0  0  0  0  0  0  0  0
   48.4180   10.3180   49.5390 H   0  0  0  0  0  0  0  0  0  0  0  0
   48.1050    9.0800   50.7580 H   0  0  0  0  0  0  0  0  0  0  0  0
   45.2180   11.0010   52.3910 H   0  0  0  0  0  0  0  0  0  0  0  0
   45.9830    9.4050   52.3760 H   0  0  0  0  0  0  0  0  0  0  0  0
   44.9880    9.9370   50.9990 H   0  0  0  0  0  0  0  0  0  0  0  0
  1  2  1  0  0  0  0
  1  5  1  0  0  0  0
  1 16  1  0  0  0  0
  1 17  1  0  0  0  0
  2  7  1  0  0  0  0
  2 18  1  0  0  0  0
  2 19  1  0  0  0  0
  3  4  1  0  0  0  0
  3  6  1  0  0  0  0
  3 20  1  0  0  0  0
  3 21  1  0  0  0  0
  4  5  1  0  0  0  0
  4  8  1  0  0  0  0
  5 22  1  0  0  0  0
  6  9  1  0  0  0  0
  6 23  1  0  0  0  0
  6 24  1  0  0  0  0
  7 10  1  0  0  0  0
  7 11  1  0  0  0  0
  8 25  1  0  0  0  0
  8 26  1  0  0  0  0
  8 27  1  0  0  0  0
  9 12  1  0  0  0  0
  9 28  1  0  0  0  0
 10 13  1  0  0  0  0
 10 29  1  0  0  0  0
 11 30  1  0  0  0  0
 11 31  1  0  0  0  0
 11 32  1  0  0  0  0
 12 14  1  0  0  0  0
 12 15  1  0  0  0  0
 13 33  1  0  0  0  0
 13 34  1  0  0  0  0
 14 35  1  0  0  0  0
 14 36  1  0  0  0  0
 14 37  1  0  0  0  0
 15 38  1  0  0  0  0
 15 39  1  0  0  0  0
 15 40  1  0  0  0  0
M  END
>  <pdb_header>
CRYST1   86.731   84.405   71.566  90.00  90.00  90.00               1


$$$$
